Pcp_File_Version=4
    2
    1  0.000000e+000  1.000000e+000  1.000000e+000
    2 -1.000000e+002  1.000000e+000  1.000000e+000
 1001    0    0    1 x         h      Mat  Lay      Beta           Axz            Bxz            Dxz          Temp          Conc 
    1 -0.000000e+000 -1.000000e+003    1    1  0.000000e+000  1.000000e+000  1.000000e+000  1.000000e+000              
    2 -1.000000e-001 -1.000000e+003    1    1  0.000000e+000  1.000000e+000  1.000000e+000  1.000000e+000              
    3 -2.000000e-001 -1.000000e+003    1    1  0.000000e+000  1.000000e+000  1.000000e+000  1.000000e+000              
    4 -3.000000e-001 -1.000000e+003    1    1  0.000000e+000  1.000000e+000  1.000000e+000  1.000000e+000              
    5 -4.000000e-001 -1.000000e+003    1    1  0.000000e+000  1.000000e+000  1.000000e+000  1.000000e+000              
    6 -5.000000e-001 -1.000000e+003    1    1  0.000000e+000  1.000000e+000  1.000000e+000  1.000000e+000              
    7 -6.000000e-001 -1.000000e+003    1    1  0.000000e+000  1.000000e+000  1.000000e+000  1.000000e+000              
    8 -7.000000e-001 -1.000000e+003    1    1  0.000000e+000  1.000000e+000  1.000000e+000  1.000000e+000              
    9 -8.000000e-001 -1.000000e+003    1    1  0.000000e+000  1.000000e+000  1.000000e+000  1.000000e+000              
   10 -9.000000e-001 -1.000000e+003    1    1  0.000000e+000  1.000000e+000  1.000000e+000  1.000000e+000              
   11 -1.000000e+000 -1.000000e+003    1    1  0.000000e+000  1.000000e+000  1.000000e+000  1.000000e+000              
   12 -1.100000e+000 -1.000000e+003    1    1  0.000000e+000  1.000000e+000  1.000000e+000  1.000000e+000              
   13 -1.200000e+000 -1.000000e+003    1    1  0.000000e+000  1.000000e+000  1.000000e+000  1.000000e+000              
   14 -1.300000e+000 -1.000000e+003    1    1  0.000000e+000  1.000000e+000  1.000000e+000  1.000000e+000              
   15 -1.400000e+000 -1.000000e+003    1    1  0.000000e+000  1.000000e+000  1.000000e+000  1.000000e+000              
   16 -1.500000e+000 -1.000000e+003    1    1  0.000000e+000  1.000000e+000  1.000000e+000  1.000000e+000              
   17 -1.600000e+000 -1.000000e+003    1    1  0.000000e+000  1.000000e+000  1.000000e+000  1.000000e+000              
   18 -1.700000e+000 -1.000000e+003    1    1  0.000000e+000  1.000000e+000  1.000000e+000  1.000000e+000              
   19 -1.800000e+000 -1.000000e+003    1    1  0.000000e+000  1.000000e+000  1.000000e+000  1.000000e+000              
   20 -1.900000e+000 -1.000000e+003    1    1  0.000000e+000  1.000000e+000  1.000000e+000  1.000000e+000              
   21 -2.000000e+000 -1.000000e+003    1    1  0.000000e+000  1.000000e+000  1.000000e+000  1.000000e+000              
   22 -2.100000e+000 -1.000000e+003    1    1  0.000000e+000  1.000000e+000  1.000000e+000  1.000000e+000              
   23 -2.200000e+000 -1.000000e+003    1    1  0.000000e+000  1.000000e+000  1.000000e+000  1.000000e+000              
   24 -2.300000e+000 -1.000000e+003    1    1  0.000000e+000  1.000000e+000  1.000000e+000  1.000000e+000              
   25 -2.400000e+000 -1.000000e+003    1    1  0.000000e+000  1.000000e+000  1.000000e+000  1.000000e+000              
   26 -2.500000e+000 -1.000000e+003    1    1  0.000000e+000  1.000000e+000  1.000000e+000  1.000000e+000              
   27 -2.600000e+000 -1.000000e+003    1    1  0.000000e+000  1.000000e+000  1.000000e+000  1.000000e+000              
   28 -2.700000e+000 -1.000000e+003    1    1  0.000000e+000  1.000000e+000  1.000000e+000  1.000000e+000              
   29 -2.800000e+000 -1.000000e+003    1    1  0.000000e+000  1.000000e+000  1.000000e+000  1.000000e+000              
   30 -2.900000e+000 -1.000000e+003    1    1  0.000000e+000  1.000000e+000  1.000000e+000  1.000000e+000              
   31 -3.000000e+000 -1.000000e+003    1    1  0.000000e+000  1.000000e+000  1.000000e+000  1.000000e+000              
   32 -3.100000e+000 -1.000000e+003    1    1  0.000000e+000  1.000000e+000  1.000000e+000  1.000000e+000              
   33 -3.200000e+000 -1.000000e+003    1    1  0.000000e+000  1.000000e+000  1.000000e+000  1.000000e+000              
   34 -3.300000e+000 -1.000000e+003    1    1  0.000000e+000  1.000000e+000  1.000000e+000  1.000000e+000              
   35 -3.400000e+000 -1.000000e+003    1    1  0.000000e+000  1.000000e+000  1.000000e+000  1.000000e+000              
   36 -3.500000e+000 -1.000000e+003    1    1  0.000000e+000  1.000000e+000  1.000000e+000  1.000000e+000              
   37 -3.600000e+000 -1.000000e+003    1    1  0.000000e+000  1.000000e+000  1.000000e+000  1.000000e+000              
   38 -3.700000e+000 -1.000000e+003    1    1  0.000000e+000  1.000000e+000  1.000000e+000  1.000000e+000              
   39 -3.800000e+000 -1.000000e+003    1    1  0.000000e+000  1.000000e+000  1.000000e+000  1.000000e+000              
   40 -3.900000e+000 -1.000000e+003    1    1  0.000000e+000  1.000000e+000  1.000000e+000  1.000000e+000              
   41 -4.000000e+000 -1.000000e+003    1    1  0.000000e+000  1.000000e+000  1.000000e+000  1.000000e+000              
   42 -4.100000e+000 -1.000000e+003    1    1  0.000000e+000  1.000000e+000  1.000000e+000  1.000000e+000              
   43 -4.200000e+000 -1.000000e+003    1    1  0.000000e+000  1.000000e+000  1.000000e+000  1.000000e+000              
   44 -4.300000e+000 -1.000000e+003    1    1  0.000000e+000  1.000000e+000  1.000000e+000  1.000000e+000              
   45 -4.400000e+000 -1.000000e+003    1    1  0.000000e+000  1.000000e+000  1.000000e+000  1.000000e+000              
   46 -4.500000e+000 -1.000000e+003    1    1  0.000000e+000  1.000000e+000  1.000000e+000  1.000000e+000              
   47 -4.600000e+000 -1.000000e+003    1    1  0.000000e+000  1.000000e+000  1.000000e+000  1.000000e+000              
   48 -4.700000e+000 -1.000000e+003    1    1  0.000000e+000  1.000000e+000  1.000000e+000  1.000000e+000              
   49 -4.800000e+000 -1.000000e+003    1    1  0.000000e+000  1.000000e+000  1.000000e+000  1.000000e+000              
   50 -4.900000e+000 -1.000000e+003    1    1  0.000000e+000  1.000000e+000  1.000000e+000  1.000000e+000              
   51 -5.000000e+000 -1.000000e+003    1    1  0.000000e+000  1.000000e+000  1.000000e+000  1.000000e+000              
   52 -5.100000e+000 -1.000000e+003    1    1  0.000000e+000  1.000000e+000  1.000000e+000  1.000000e+000              
   53 -5.200000e+000 -1.000000e+003    1    1  0.000000e+000  1.000000e+000  1.000000e+000  1.000000e+000              
   54 -5.300000e+000 -1.000000e+003    1    1  0.000000e+000  1.000000e+000  1.000000e+000  1.000000e+000              
   55 -5.400000e+000 -1.000000e+003    1    1  0.000000e+000  1.000000e+000  1.000000e+000  1.000000e+000              
   56 -5.500000e+000 -1.000000e+003    1    1  0.000000e+000  1.000000e+000  1.000000e+000  1.000000e+000              
   57 -5.600000e+000 -1.000000e+003    1    1  0.000000e+000  1.000000e+000  1.000000e+000  1.000000e+000              
   58 -5.700000e+000 -1.000000e+003    1    1  0.000000e+000  1.000000e+000  1.000000e+000  1.000000e+000              
   59 -5.800000e+000 -1.000000e+003    1    1  0.000000e+000  1.000000e+000  1.000000e+000  1.000000e+000              
   60 -5.900000e+000 -1.000000e+003    1    1  0.000000e+000  1.000000e+000  1.000000e+000  1.000000e+000              
   61 -6.000000e+000 -1.000000e+003    1    1  0.000000e+000  1.000000e+000  1.000000e+000  1.000000e+000              
   62 -6.100000e+000 -1.000000e+003    1    1  0.000000e+000  1.000000e+000  1.000000e+000  1.000000e+000              
   63 -6.200000e+000 -1.000000e+003    1    1  0.000000e+000  1.000000e+000  1.000000e+000  1.000000e+000              
   64 -6.300000e+000 -1.000000e+003    1    1  0.000000e+000  1.000000e+000  1.000000e+000  1.000000e+000              
   65 -6.400000e+000 -1.000000e+003    1    1  0.000000e+000  1.000000e+000  1.000000e+000  1.000000e+000              
   66 -6.500000e+000 -1.000000e+003    1    1  0.000000e+000  1.000000e+000  1.000000e+000  1.000000e+000              
   67 -6.600000e+000 -1.000000e+003    1    1  0.000000e+000  1.000000e+000  1.000000e+000  1.000000e+000              
   68 -6.700000e+000 -1.000000e+003    1    1  0.000000e+000  1.000000e+000  1.000000e+000  1.000000e+000              
   69 -6.800000e+000 -1.000000e+003    1    1  0.000000e+000  1.000000e+000  1.000000e+000  1.000000e+000              
   70 -6.900000e+000 -1.000000e+003    1    1  0.000000e+000  1.000000e+000  1.000000e+000  1.000000e+000              
   71 -7.000000e+000 -1.000000e+003    1    1  0.000000e+000  1.000000e+000  1.000000e+000  1.000000e+000              
   72 -7.100000e+000 -1.000000e+003    1    1  0.000000e+000  1.000000e+000  1.000000e+000  1.000000e+000              
   73 -7.200000e+000 -1.000000e+003    1    1  0.000000e+000  1.000000e+000  1.000000e+000  1.000000e+000              
   74 -7.300000e+000 -1.000000e+003    1    1  0.000000e+000  1.000000e+000  1.000000e+000  1.000000e+000              
   75 -7.400000e+000 -1.000000e+003    1    1  0.000000e+000  1.000000e+000  1.000000e+000  1.000000e+000              
   76 -7.500000e+000 -1.000000e+003    1    1  0.000000e+000  1.000000e+000  1.000000e+000  1.000000e+000              
   77 -7.600000e+000 -1.000000e+003    1    1  0.000000e+000  1.000000e+000  1.000000e+000  1.000000e+000              
   78 -7.700000e+000 -1.000000e+003    1    1  0.000000e+000  1.000000e+000  1.000000e+000  1.000000e+000              
   79 -7.800000e+000 -1.000000e+003    1    1  0.000000e+000  1.000000e+000  1.000000e+000  1.000000e+000              
   80 -7.900000e+000 -1.000000e+003    1    1  0.000000e+000  1.000000e+000  1.000000e+000  1.000000e+000              
   81 -8.000000e+000 -1.000000e+003    1    1  0.000000e+000  1.000000e+000  1.000000e+000  1.000000e+000              
   82 -8.100000e+000 -1.000000e+003    1    1  0.000000e+000  1.000000e+000  1.000000e+000  1.000000e+000              
   83 -8.200000e+000 -1.000000e+003    1    1  0.000000e+000  1.000000e+000  1.000000e+000  1.000000e+000              
   84 -8.300000e+000 -1.000000e+003    1    1  0.000000e+000  1.000000e+000  1.000000e+000  1.000000e+000              
   85 -8.400000e+000 -1.000000e+003    1    1  0.000000e+000  1.000000e+000  1.000000e+000  1.000000e+000              
   86 -8.500000e+000 -1.000000e+003    1    1  0.000000e+000  1.000000e+000  1.000000e+000  1.000000e+000              
   87 -8.600000e+000 -1.000000e+003    1    1  0.000000e+000  1.000000e+000  1.000000e+000  1.000000e+000              
   88 -8.700000e+000 -1.000000e+003    1    1  0.000000e+000  1.000000e+000  1.000000e+000  1.000000e+000              
   89 -8.800000e+000 -1.000000e+003    1    1  0.000000e+000  1.000000e+000  1.000000e+000  1.000000e+000              
   90 -8.900000e+000 -1.000000e+003    1    1  0.000000e+000  1.000000e+000  1.000000e+000  1.000000e+000              
   91 -9.000000e+000 -1.000000e+003    1    1  0.000000e+000  1.000000e+000  1.000000e+000  1.000000e+000              
   92 -9.100000e+000 -1.000000e+003    1    1  0.000000e+000  1.000000e+000  1.000000e+000  1.000000e+000              
   93 -9.200000e+000 -1.000000e+003    1    1  0.000000e+000  1.000000e+000  1.000000e+000  1.000000e+000              
   94 -9.300000e+000 -1.000000e+003    1    1  0.000000e+000  1.000000e+000  1.000000e+000  1.000000e+000              
   95 -9.400000e+000 -1.000000e+003    1    1  0.000000e+000  1.000000e+000  1.000000e+000  1.000000e+000              
   96 -9.500000e+000 -1.000000e+003    1    1  0.000000e+000  1.000000e+000  1.000000e+000  1.000000e+000              
   97 -9.600000e+000 -1.000000e+003    1    1  0.000000e+000  1.000000e+000  1.000000e+000  1.000000e+000              
   98 -9.700000e+000 -1.000000e+003    1    1  0.000000e+000  1.000000e+000  1.000000e+000  1.000000e+000              
   99 -9.800000e+000 -1.000000e+003    1    1  0.000000e+000  1.000000e+000  1.000000e+000  1.000000e+000              
  100 -9.900000e+000 -1.000000e+003    1    1  0.000000e+000  1.000000e+000  1.000000e+000  1.000000e+000              
  101 -1.000000e+001 -1.000000e+003    1    1  0.000000e+000  1.000000e+000  1.000000e+000  1.000000e+000              
  102 -1.010000e+001 -1.000000e+003    1    1  0.000000e+000  1.000000e+000  1.000000e+000  1.000000e+000              
  103 -1.020000e+001 -1.000000e+003    1    1  0.000000e+000  1.000000e+000  1.000000e+000  1.000000e+000              
  104 -1.030000e+001 -1.000000e+003    1    1  0.000000e+000  1.000000e+000  1.000000e+000  1.000000e+000              
  105 -1.040000e+001 -1.000000e+003    1    1  0.000000e+000  1.000000e+000  1.000000e+000  1.000000e+000              
  106 -1.050000e+001 -1.000000e+003    1    1  0.000000e+000  1.000000e+000  1.000000e+000  1.000000e+000              
  107 -1.060000e+001 -1.000000e+003    1    1  0.000000e+000  1.000000e+000  1.000000e+000  1.000000e+000              
  108 -1.070000e+001 -1.000000e+003    1    1  0.000000e+000  1.000000e+000  1.000000e+000  1.000000e+000              
  109 -1.080000e+001 -1.000000e+003    1    1  0.000000e+000  1.000000e+000  1.000000e+000  1.000000e+000              
  110 -1.090000e+001 -1.000000e+003    1    1  0.000000e+000  1.000000e+000  1.000000e+000  1.000000e+000              
  111 -1.100000e+001 -1.000000e+003    1    1  0.000000e+000  1.000000e+000  1.000000e+000  1.000000e+000              
  112 -1.110000e+001 -1.000000e+003    1    1  0.000000e+000  1.000000e+000  1.000000e+000  1.000000e+000              
  113 -1.120000e+001 -1.000000e+003    1    1  0.000000e+000  1.000000e+000  1.000000e+000  1.000000e+000              
  114 -1.130000e+001 -1.000000e+003    1    1  0.000000e+000  1.000000e+000  1.000000e+000  1.000000e+000              
  115 -1.140000e+001 -1.000000e+003    1    1  0.000000e+000  1.000000e+000  1.000000e+000  1.000000e+000              
  116 -1.150000e+001 -1.000000e+003    1    1  0.000000e+000  1.000000e+000  1.000000e+000  1.000000e+000              
  117 -1.160000e+001 -1.000000e+003    1    1  0.000000e+000  1.000000e+000  1.000000e+000  1.000000e+000              
  118 -1.170000e+001 -1.000000e+003    1    1  0.000000e+000  1.000000e+000  1.000000e+000  1.000000e+000              
  119 -1.180000e+001 -1.000000e+003    1    1  0.000000e+000  1.000000e+000  1.000000e+000  1.000000e+000              
  120 -1.190000e+001 -1.000000e+003    1    1  0.000000e+000  1.000000e+000  1.000000e+000  1.000000e+000              
  121 -1.200000e+001 -1.000000e+003    1    1  0.000000e+000  1.000000e+000  1.000000e+000  1.000000e+000              
  122 -1.210000e+001 -1.000000e+003    1    1  0.000000e+000  1.000000e+000  1.000000e+000  1.000000e+000              
  123 -1.220000e+001 -1.000000e+003    1    1  0.000000e+000  1.000000e+000  1.000000e+000  1.000000e+000              
  124 -1.230000e+001 -1.000000e+003    1    1  0.000000e+000  1.000000e+000  1.000000e+000  1.000000e+000              
  125 -1.240000e+001 -1.000000e+003    1    1  0.000000e+000  1.000000e+000  1.000000e+000  1.000000e+000              
  126 -1.250000e+001 -1.000000e+003    1    1  0.000000e+000  1.000000e+000  1.000000e+000  1.000000e+000              
  127 -1.260000e+001 -1.000000e+003    1    1  0.000000e+000  1.000000e+000  1.000000e+000  1.000000e+000              
  128 -1.270000e+001 -1.000000e+003    1    1  0.000000e+000  1.000000e+000  1.000000e+000  1.000000e+000              
  129 -1.280000e+001 -1.000000e+003    1    1  0.000000e+000  1.000000e+000  1.000000e+000  1.000000e+000              
  130 -1.290000e+001 -1.000000e+003    1    1  0.000000e+000  1.000000e+000  1.000000e+000  1.000000e+000              
  131 -1.300000e+001 -1.000000e+003    1    1  0.000000e+000  1.000000e+000  1.000000e+000  1.000000e+000              
  132 -1.310000e+001 -1.000000e+003    1    1  0.000000e+000  1.000000e+000  1.000000e+000  1.000000e+000              
  133 -1.320000e+001 -1.000000e+003    1    1  0.000000e+000  1.000000e+000  1.000000e+000  1.000000e+000              
  134 -1.330000e+001 -1.000000e+003    1    1  0.000000e+000  1.000000e+000  1.000000e+000  1.000000e+000              
  135 -1.340000e+001 -1.000000e+003    1    1  0.000000e+000  1.000000e+000  1.000000e+000  1.000000e+000              
  136 -1.350000e+001 -1.000000e+003    1    1  0.000000e+000  1.000000e+000  1.000000e+000  1.000000e+000              
  137 -1.360000e+001 -1.000000e+003    1    1  0.000000e+000  1.000000e+000  1.000000e+000  1.000000e+000              
  138 -1.370000e+001 -1.000000e+003    1    1  0.000000e+000  1.000000e+000  1.000000e+000  1.000000e+000              
  139 -1.380000e+001 -1.000000e+003    1    1  0.000000e+000  1.000000e+000  1.000000e+000  1.000000e+000              
  140 -1.390000e+001 -1.000000e+003    1    1  0.000000e+000  1.000000e+000  1.000000e+000  1.000000e+000              
  141 -1.400000e+001 -1.000000e+003    1    1  0.000000e+000  1.000000e+000  1.000000e+000  1.000000e+000              
  142 -1.410000e+001 -1.000000e+003    1    1  0.000000e+000  1.000000e+000  1.000000e+000  1.000000e+000              
  143 -1.420000e+001 -1.000000e+003    1    1  0.000000e+000  1.000000e+000  1.000000e+000  1.000000e+000              
  144 -1.430000e+001 -1.000000e+003    1    1  0.000000e+000  1.000000e+000  1.000000e+000  1.000000e+000              
  145 -1.440000e+001 -1.000000e+003    1    1  0.000000e+000  1.000000e+000  1.000000e+000  1.000000e+000              
  146 -1.450000e+001 -1.000000e+003    1    1  0.000000e+000  1.000000e+000  1.000000e+000  1.000000e+000              
  147 -1.460000e+001 -1.000000e+003    1    1  0.000000e+000  1.000000e+000  1.000000e+000  1.000000e+000              
  148 -1.470000e+001 -1.000000e+003    1    1  0.000000e+000  1.000000e+000  1.000000e+000  1.000000e+000              
  149 -1.480000e+001 -1.000000e+003    1    1  0.000000e+000  1.000000e+000  1.000000e+000  1.000000e+000              
  150 -1.490000e+001 -1.000000e+003    1    1  0.000000e+000  1.000000e+000  1.000000e+000  1.000000e+000              
  151 -1.500000e+001 -1.000000e+003    1    1  0.000000e+000  1.000000e+000  1.000000e+000  1.000000e+000              
  152 -1.510000e+001 -1.000000e+003    1    1  0.000000e+000  1.000000e+000  1.000000e+000  1.000000e+000              
  153 -1.520000e+001 -1.000000e+003    1    1  0.000000e+000  1.000000e+000  1.000000e+000  1.000000e+000              
  154 -1.530000e+001 -1.000000e+003    1    1  0.000000e+000  1.000000e+000  1.000000e+000  1.000000e+000              
  155 -1.540000e+001 -1.000000e+003    1    1  0.000000e+000  1.000000e+000  1.000000e+000  1.000000e+000              
  156 -1.550000e+001 -1.000000e+003    1    1  0.000000e+000  1.000000e+000  1.000000e+000  1.000000e+000              
  157 -1.560000e+001 -1.000000e+003    1    1  0.000000e+000  1.000000e+000  1.000000e+000  1.000000e+000              
  158 -1.570000e+001 -1.000000e+003    1    1  0.000000e+000  1.000000e+000  1.000000e+000  1.000000e+000              
  159 -1.580000e+001 -1.000000e+003    1    1  0.000000e+000  1.000000e+000  1.000000e+000  1.000000e+000              
  160 -1.590000e+001 -1.000000e+003    1    1  0.000000e+000  1.000000e+000  1.000000e+000  1.000000e+000              
  161 -1.600000e+001 -1.000000e+003    1    1  0.000000e+000  1.000000e+000  1.000000e+000  1.000000e+000              
  162 -1.610000e+001 -1.000000e+003    1    1  0.000000e+000  1.000000e+000  1.000000e+000  1.000000e+000              
  163 -1.620000e+001 -1.000000e+003    1    1  0.000000e+000  1.000000e+000  1.000000e+000  1.000000e+000              
  164 -1.630000e+001 -1.000000e+003    1    1  0.000000e+000  1.000000e+000  1.000000e+000  1.000000e+000              
  165 -1.640000e+001 -1.000000e+003    1    1  0.000000e+000  1.000000e+000  1.000000e+000  1.000000e+000              
  166 -1.650000e+001 -1.000000e+003    1    1  0.000000e+000  1.000000e+000  1.000000e+000  1.000000e+000              
  167 -1.660000e+001 -1.000000e+003    1    1  0.000000e+000  1.000000e+000  1.000000e+000  1.000000e+000              
  168 -1.670000e+001 -1.000000e+003    1    1  0.000000e+000  1.000000e+000  1.000000e+000  1.000000e+000              
  169 -1.680000e+001 -1.000000e+003    1    1  0.000000e+000  1.000000e+000  1.000000e+000  1.000000e+000              
  170 -1.690000e+001 -1.000000e+003    1    1  0.000000e+000  1.000000e+000  1.000000e+000  1.000000e+000              
  171 -1.700000e+001 -1.000000e+003    1    1  0.000000e+000  1.000000e+000  1.000000e+000  1.000000e+000              
  172 -1.710000e+001 -1.000000e+003    1    1  0.000000e+000  1.000000e+000  1.000000e+000  1.000000e+000              
  173 -1.720000e+001 -1.000000e+003    1    1  0.000000e+000  1.000000e+000  1.000000e+000  1.000000e+000              
  174 -1.730000e+001 -1.000000e+003    1    1  0.000000e+000  1.000000e+000  1.000000e+000  1.000000e+000              
  175 -1.740000e+001 -1.000000e+003    1    1  0.000000e+000  1.000000e+000  1.000000e+000  1.000000e+000              
  176 -1.750000e+001 -1.000000e+003    1    1  0.000000e+000  1.000000e+000  1.000000e+000  1.000000e+000              
  177 -1.760000e+001 -1.000000e+003    1    1  0.000000e+000  1.000000e+000  1.000000e+000  1.000000e+000              
  178 -1.770000e+001 -1.000000e+003    1    1  0.000000e+000  1.000000e+000  1.000000e+000  1.000000e+000              
  179 -1.780000e+001 -1.000000e+003    1    1  0.000000e+000  1.000000e+000  1.000000e+000  1.000000e+000              
  180 -1.790000e+001 -1.000000e+003    1    1  0.000000e+000  1.000000e+000  1.000000e+000  1.000000e+000              
  181 -1.800000e+001 -1.000000e+003    1    1  0.000000e+000  1.000000e+000  1.000000e+000  1.000000e+000              
  182 -1.810000e+001 -1.000000e+003    1    1  0.000000e+000  1.000000e+000  1.000000e+000  1.000000e+000              
  183 -1.820000e+001 -1.000000e+003    1    1  0.000000e+000  1.000000e+000  1.000000e+000  1.000000e+000              
  184 -1.830000e+001 -1.000000e+003    1    1  0.000000e+000  1.000000e+000  1.000000e+000  1.000000e+000              
  185 -1.840000e+001 -1.000000e+003    1    1  0.000000e+000  1.000000e+000  1.000000e+000  1.000000e+000              
  186 -1.850000e+001 -1.000000e+003    1    1  0.000000e+000  1.000000e+000  1.000000e+000  1.000000e+000              
  187 -1.860000e+001 -1.000000e+003    1    1  0.000000e+000  1.000000e+000  1.000000e+000  1.000000e+000              
  188 -1.870000e+001 -1.000000e+003    1    1  0.000000e+000  1.000000e+000  1.000000e+000  1.000000e+000              
  189 -1.880000e+001 -1.000000e+003    1    1  0.000000e+000  1.000000e+000  1.000000e+000  1.000000e+000              
  190 -1.890000e+001 -1.000000e+003    1    1  0.000000e+000  1.000000e+000  1.000000e+000  1.000000e+000              
  191 -1.900000e+001 -1.000000e+003    1    1  0.000000e+000  1.000000e+000  1.000000e+000  1.000000e+000              
  192 -1.910000e+001 -1.000000e+003    1    1  0.000000e+000  1.000000e+000  1.000000e+000  1.000000e+000              
  193 -1.920000e+001 -1.000000e+003    1    1  0.000000e+000  1.000000e+000  1.000000e+000  1.000000e+000              
  194 -1.930000e+001 -1.000000e+003    1    1  0.000000e+000  1.000000e+000  1.000000e+000  1.000000e+000              
  195 -1.940000e+001 -1.000000e+003    1    1  0.000000e+000  1.000000e+000  1.000000e+000  1.000000e+000              
  196 -1.950000e+001 -1.000000e+003    1    1  0.000000e+000  1.000000e+000  1.000000e+000  1.000000e+000              
  197 -1.960000e+001 -1.000000e+003    1    1  0.000000e+000  1.000000e+000  1.000000e+000  1.000000e+000              
  198 -1.970000e+001 -1.000000e+003    1    1  0.000000e+000  1.000000e+000  1.000000e+000  1.000000e+000              
  199 -1.980000e+001 -1.000000e+003    1    1  0.000000e+000  1.000000e+000  1.000000e+000  1.000000e+000              
  200 -1.990000e+001 -1.000000e+003    1    1  0.000000e+000  1.000000e+000  1.000000e+000  1.000000e+000              
  201 -2.000000e+001 -1.000000e+003    1    1  0.000000e+000  1.000000e+000  1.000000e+000  1.000000e+000              
  202 -2.010000e+001 -1.000000e+003    1    1  0.000000e+000  1.000000e+000  1.000000e+000  1.000000e+000              
  203 -2.020000e+001 -1.000000e+003    1    1  0.000000e+000  1.000000e+000  1.000000e+000  1.000000e+000              
  204 -2.030000e+001 -1.000000e+003    1    1  0.000000e+000  1.000000e+000  1.000000e+000  1.000000e+000              
  205 -2.040000e+001 -1.000000e+003    1    1  0.000000e+000  1.000000e+000  1.000000e+000  1.000000e+000              
  206 -2.050000e+001 -1.000000e+003    1    1  0.000000e+000  1.000000e+000  1.000000e+000  1.000000e+000              
  207 -2.060000e+001 -1.000000e+003    1    1  0.000000e+000  1.000000e+000  1.000000e+000  1.000000e+000              
  208 -2.070000e+001 -1.000000e+003    1    1  0.000000e+000  1.000000e+000  1.000000e+000  1.000000e+000              
  209 -2.080000e+001 -1.000000e+003    1    1  0.000000e+000  1.000000e+000  1.000000e+000  1.000000e+000              
  210 -2.090000e+001 -1.000000e+003    1    1  0.000000e+000  1.000000e+000  1.000000e+000  1.000000e+000              
  211 -2.100000e+001 -1.000000e+003    1    1  0.000000e+000  1.000000e+000  1.000000e+000  1.000000e+000              
  212 -2.110000e+001 -1.000000e+003    1    1  0.000000e+000  1.000000e+000  1.000000e+000  1.000000e+000              
  213 -2.120000e+001 -1.000000e+003    1    1  0.000000e+000  1.000000e+000  1.000000e+000  1.000000e+000              
  214 -2.130000e+001 -1.000000e+003    1    1  0.000000e+000  1.000000e+000  1.000000e+000  1.000000e+000              
  215 -2.140000e+001 -1.000000e+003    1    1  0.000000e+000  1.000000e+000  1.000000e+000  1.000000e+000              
  216 -2.150000e+001 -1.000000e+003    1    1  0.000000e+000  1.000000e+000  1.000000e+000  1.000000e+000              
  217 -2.160000e+001 -1.000000e+003    1    1  0.000000e+000  1.000000e+000  1.000000e+000  1.000000e+000              
  218 -2.170000e+001 -1.000000e+003    1    1  0.000000e+000  1.000000e+000  1.000000e+000  1.000000e+000              
  219 -2.180000e+001 -1.000000e+003    1    1  0.000000e+000  1.000000e+000  1.000000e+000  1.000000e+000              
  220 -2.190000e+001 -1.000000e+003    1    1  0.000000e+000  1.000000e+000  1.000000e+000  1.000000e+000              
  221 -2.200000e+001 -1.000000e+003    1    1  0.000000e+000  1.000000e+000  1.000000e+000  1.000000e+000              
  222 -2.210000e+001 -1.000000e+003    1    1  0.000000e+000  1.000000e+000  1.000000e+000  1.000000e+000              
  223 -2.220000e+001 -1.000000e+003    1    1  0.000000e+000  1.000000e+000  1.000000e+000  1.000000e+000              
  224 -2.230000e+001 -1.000000e+003    1    1  0.000000e+000  1.000000e+000  1.000000e+000  1.000000e+000              
  225 -2.240000e+001 -1.000000e+003    1    1  0.000000e+000  1.000000e+000  1.000000e+000  1.000000e+000              
  226 -2.250000e+001 -1.000000e+003    1    1  0.000000e+000  1.000000e+000  1.000000e+000  1.000000e+000              
  227 -2.260000e+001 -1.000000e+003    1    1  0.000000e+000  1.000000e+000  1.000000e+000  1.000000e+000              
  228 -2.270000e+001 -1.000000e+003    1    1  0.000000e+000  1.000000e+000  1.000000e+000  1.000000e+000              
  229 -2.280000e+001 -1.000000e+003    1    1  0.000000e+000  1.000000e+000  1.000000e+000  1.000000e+000              
  230 -2.290000e+001 -1.000000e+003    1    1  0.000000e+000  1.000000e+000  1.000000e+000  1.000000e+000              
  231 -2.300000e+001 -1.000000e+003    1    1  0.000000e+000  1.000000e+000  1.000000e+000  1.000000e+000              
  232 -2.310000e+001 -1.000000e+003    1    1  0.000000e+000  1.000000e+000  1.000000e+000  1.000000e+000              
  233 -2.320000e+001 -1.000000e+003    1    1  0.000000e+000  1.000000e+000  1.000000e+000  1.000000e+000              
  234 -2.330000e+001 -1.000000e+003    1    1  0.000000e+000  1.000000e+000  1.000000e+000  1.000000e+000              
  235 -2.340000e+001 -1.000000e+003    1    1  0.000000e+000  1.000000e+000  1.000000e+000  1.000000e+000              
  236 -2.350000e+001 -1.000000e+003    1    1  0.000000e+000  1.000000e+000  1.000000e+000  1.000000e+000              
  237 -2.360000e+001 -1.000000e+003    1    1  0.000000e+000  1.000000e+000  1.000000e+000  1.000000e+000              
  238 -2.370000e+001 -1.000000e+003    1    1  0.000000e+000  1.000000e+000  1.000000e+000  1.000000e+000              
  239 -2.380000e+001 -1.000000e+003    1    1  0.000000e+000  1.000000e+000  1.000000e+000  1.000000e+000              
  240 -2.390000e+001 -1.000000e+003    1    1  0.000000e+000  1.000000e+000  1.000000e+000  1.000000e+000              
  241 -2.400000e+001 -1.000000e+003    1    1  0.000000e+000  1.000000e+000  1.000000e+000  1.000000e+000              
  242 -2.410000e+001 -1.000000e+003    1    1  0.000000e+000  1.000000e+000  1.000000e+000  1.000000e+000              
  243 -2.420000e+001 -1.000000e+003    1    1  0.000000e+000  1.000000e+000  1.000000e+000  1.000000e+000              
  244 -2.430000e+001 -1.000000e+003    1    1  0.000000e+000  1.000000e+000  1.000000e+000  1.000000e+000              
  245 -2.440000e+001 -1.000000e+003    1    1  0.000000e+000  1.000000e+000  1.000000e+000  1.000000e+000              
  246 -2.450000e+001 -1.000000e+003    1    1  0.000000e+000  1.000000e+000  1.000000e+000  1.000000e+000              
  247 -2.460000e+001 -1.000000e+003    1    1  0.000000e+000  1.000000e+000  1.000000e+000  1.000000e+000              